LTspice 24.1.9 for Windows
Circuit: C:\Users\Ognjen Gutesa\Documents\Projects\base3\sims\schematics\MIN.net
Start Time: Fri Oct 24 14:43:21 2025
C:\Users\Ognjen Gutesa\AppData\Local\LTspice\lib\sub\IRF540.sub(9): Ignoring unknown model parameter. This may or may not be a problem.
+ RG=1.2###>        ; Gate Resistance (Ω) + CGD=29e-9<###     ; Gate-Drain Capacitance (F)
C:\Users\Ognjen Gutesa\AppData\Local\LTspice\lib\sub\IRF540.sub(10): Ignoring unknown model parameter. This may or may not be a problem.
+ CGD=29e-9###>     ; Gate-Drain Capacitance (F) + CGS=10e-9<###     ; Gate-Source Capacitance (F)
solver = Normal
Maximum thread count: 12
tnom = 27
temp = 27
method = trap
.step Vd=100 
.step Vd=99.77 
.step Vd=99.5405 
.step Vd=99.3116 
.step Vd=99.0832 
.step Vd=98.8553 
.step Vd=98.6279 
.step Vd=98.4011 
.step Vd=98.1748 
.step Vd=97.949 
.step Vd=97.7237 
.step Vd=97.499 
.step Vd=97.2747 
.step Vd=97.051 
.step Vd=96.8278 
.step Vd=96.6051 
.step Vd=96.3829 
.step Vd=96.1612 
.step Vd=95.9401 
.step Vd=95.7194 
.step Vd=95.4993 
.step Vd=95.2796 
.step Vd=95.0605 
.step Vd=94.8418 
.step Vd=94.6237 
.step Vd=94.4061 
.step Vd=94.189 
.step Vd=93.9723 
.step Vd=93.7562 
.step Vd=93.5406 
.step Vd=93.3254 
.step Vd=93.1108 
.step Vd=92.8966 
.step Vd=92.683 
.step Vd=92.4698 
.step Vd=92.2571 
.step Vd=92.045 
.step Vd=91.8333 
.step Vd=91.622 
.step Vd=91.4113 
.step Vd=91.2011 
.step Vd=90.9913 
.step Vd=90.7821 
.step Vd=90.5733 
.step Vd=90.3649 
.step Vd=90.1571 
.step Vd=89.9498 
.step Vd=89.7429 
.step Vd=89.5365 
.step Vd=89.3305 
.step Vd=89.1251 
.step Vd=88.9201 
.step Vd=88.7156 
.step Vd=88.5116 
.step Vd=88.308 
.step Vd=88.1049 
.step Vd=87.9023 
.step Vd=87.7001 
.step Vd=87.4984 
.step Vd=87.2971 
.step Vd=87.0964 
.step Vd=86.896 
.step Vd=86.6962 
.step Vd=86.4968 
.step Vd=86.2979 
.step Vd=86.0994 
.step Vd=85.9014 
.step Vd=85.7038 
.step Vd=85.5067 
.step Vd=85.31 
.step Vd=85.1138 
.step Vd=84.918 
.step Vd=84.7227 
.step Vd=84.5279 
.step Vd=84.3335 
.step Vd=84.1395 
.step Vd=83.946 
.step Vd=83.7529 
.step Vd=83.5603 
.step Vd=83.3681 
.step Vd=83.1764 
.step Vd=82.9851 
.step Vd=82.7942 
.step Vd=82.6038 
.step Vd=82.4138 
.step Vd=82.2243 
.step Vd=82.0352 
.step Vd=81.8465 
.step Vd=81.6582 
.step Vd=81.4704 
.step Vd=81.2831 
.step Vd=81.0961 
.step Vd=80.9096 
.step Vd=80.7235 
.step Vd=80.5378 
.step Vd=80.3526 
.step Vd=80.1678 
.step Vd=79.9834 
.step Vd=79.7995 
.step Vd=79.6159 
.step Vd=79.4328 
.step Vd=79.2501 
.step Vd=79.0679 
.step Vd=78.886 
.step Vd=78.7046 
.step Vd=78.5236 
.step Vd=78.343 
.step Vd=78.1628 
.step Vd=77.983 
.step Vd=77.8037 
.step Vd=77.6247 
.step Vd=77.4462 
.step Vd=77.2681 
.step Vd=77.0903 
.step Vd=76.913 
.step Vd=76.7361 
.step Vd=76.5597 
.step Vd=76.3836 
.step Vd=76.2079 
.step Vd=76.0326 
.step Vd=75.8578 
.step Vd=75.6833 
.step Vd=75.5092 
.step Vd=75.3356 
.step Vd=75.1623 
.step Vd=74.9894 
.step Vd=74.817 
.step Vd=74.6449 
.step Vd=74.4732 
.step Vd=74.3019 
.step Vd=74.131 
.step Vd=73.9605 
.step Vd=73.7904 
.step Vd=73.6207 
.step Vd=73.4514 
.step Vd=73.2825 
.step Vd=73.1139 
.step Vd=72.9458 
.step Vd=72.778 
.step Vd=72.6106 
.step Vd=72.4436 
.step Vd=72.277 
.step Vd=72.1107 
.step Vd=71.9449 
.step Vd=71.7794 
.step Vd=71.6143 
.step Vd=71.4496 
.step Vd=71.2853 
.step Vd=71.1214 
.step Vd=70.9578 
.step Vd=70.7946 
.step Vd=70.6318 
.step Vd=70.4693 
.step Vd=70.3072 
.step Vd=70.1455 
.step Vd=69.9842 
.step Vd=69.8232 
.step Vd=69.6627 
.step Vd=69.5024 
.step Vd=69.3426 
.step Vd=69.1831 
.step Vd=69.024 
.step Vd=68.8652 
.step Vd=68.7068 
.step Vd=68.5488 
.step Vd=68.3912 
.step Vd=68.2339 
.step Vd=68.0769 
.step Vd=67.9204 
.step Vd=67.7642 
.step Vd=67.6083 
.step Vd=67.4528 
.step Vd=67.2977 
.step Vd=67.1429 
.step Vd=66.9885 
.step Vd=66.8344 
.step Vd=66.6807 
.step Vd=66.5273 
.step Vd=66.3743 
.step Vd=66.2217 
.step Vd=66.0693 
.step Vd=65.9174 
.step Vd=65.7658 
.step Vd=65.6145 
.step Vd=65.4636 
.step Vd=65.3131 
.step Vd=65.1628 
.step Vd=65.013 
.step Vd=64.8634 
.step Vd=64.7143 
.step Vd=64.5654 
.step Vd=64.4169 
.step Vd=64.2688 
.step Vd=64.121 
.step Vd=63.9735 
.step Vd=63.8263 
.step Vd=63.6796 
.step Vd=63.5331 
.step Vd=63.387 
.step Vd=63.2412 
.step Vd=63.0957 
.step Vd=62.9506 
.step Vd=62.8058 
.step Vd=62.6614 
.step Vd=62.5173 
.step Vd=62.3735 
.step Vd=62.23 
.step Vd=62.0869 
.step Vd=61.9441 
.step Vd=61.8016 
.step Vd=61.6595 
.step Vd=61.5177 
.step Vd=61.3762 
.step Vd=61.235 
.step Vd=61.0942 
.step Vd=60.9537 
.step Vd=60.8135 
.step Vd=60.6736 
.step Vd=60.5341 
.step Vd=60.3949 
.step Vd=60.256 
.step Vd=60.1174 
.step Vd=59.9791 
.step Vd=59.8412 
.step Vd=59.7035 
.step Vd=59.5662 
.step Vd=59.4292 
.step Vd=59.2925 
.step Vd=59.1562 
.step Vd=59.0201 
.step Vd=58.8844 
.step Vd=58.7489 
.step Vd=58.6138 
.step Vd=58.479 
.step Vd=58.3445 
.step Vd=58.2103 
.step Vd=58.0764 
.step Vd=57.9429 
.step Vd=57.8096 
.step Vd=57.6766 
.step Vd=57.544 
.step Vd=57.4116 
.step Vd=57.2796 
.step Vd=57.1479 
.step Vd=57.0164 
.step Vd=56.8853 
.step Vd=56.7545 
.step Vd=56.6239 
.step Vd=56.4937 
.step Vd=56.3638 
.step Vd=56.2341 
.step Vd=56.1048 
.step Vd=55.9758 
.step Vd=55.847 
.step Vd=55.7186 
.step Vd=55.5904 
.step Vd=55.4626 
.step Vd=55.335 
.step Vd=55.2077 
.step Vd=55.0808 
.step Vd=54.9541 
.step Vd=54.8277 
.step Vd=54.7016 
.step Vd=54.5758 
.step Vd=54.4503 
.step Vd=54.325 
.step Vd=54.2001 
.step Vd=54.0754 
.step Vd=53.9511 
.step Vd=53.827 
.step Vd=53.7032 
.step Vd=53.5797 
.step Vd=53.4564 
.step Vd=53.3335 
.step Vd=53.2108 
.step Vd=53.0884 
.step Vd=52.9663 
.step Vd=52.8445 
.step Vd=52.723 
.step Vd=52.6017 
.step Vd=52.4807 
.step Vd=52.36 
.step Vd=52.2396 
.step Vd=52.1195 
.step Vd=51.9996 
.step Vd=51.88 
.step Vd=51.7607 
.step Vd=51.6416 
.step Vd=51.5229 
.step Vd=51.4044 
.step Vd=51.2861 
.step Vd=51.1682 
.step Vd=51.0505 
.step Vd=50.9331 
.step Vd=50.8159 
.step Vd=50.6991 
.step Vd=50.5825 
.step Vd=50.4661 
.step Vd=50.3501 
.step Vd=50.2343 
.step Vd=50.1187 
.step Vd=50.0035 
.step Vd=49.8884 
.step Vd=49.7737 
.step Vd=49.6592 
.step Vd=49.545 
.step Vd=49.4311 
.step Vd=49.3174 
.step Vd=49.204 
.step Vd=49.0908 
.step Vd=48.9779 
.step Vd=48.8652 
.step Vd=48.7528 
.step Vd=48.6407 
.step Vd=48.5289 
.step Vd=48.4172 
.step Vd=48.3059 
.step Vd=48.1948 
.step Vd=48.0839 
.step Vd=47.9733 
.step Vd=47.863 
.step Vd=47.7529 
.step Vd=47.6431 
.step Vd=47.5335 
.step Vd=47.4242 
.step Vd=47.3151 
.step Vd=47.2063 
.step Vd=47.0977 
.step Vd=46.9894 
.step Vd=46.8813 
.step Vd=46.7735 
.step Vd=46.6659 
.step Vd=46.5586 
.step Vd=46.4515 
.step Vd=46.3447 
.step Vd=46.2381 
.step Vd=46.1318 
.step Vd=46.0257 
.step Vd=45.9198 
.step Vd=45.8142 
.step Vd=45.7088 
.step Vd=45.6037 
.step Vd=45.4988 
.step Vd=45.3942 
.step Vd=45.2898 
.step Vd=45.1856 
.step Vd=45.0817 
.step Vd=44.978 
.step Vd=44.8745 
.step Vd=44.7713 
.step Vd=44.6684 
.step Vd=44.5656 
.step Vd=44.4631 
.step Vd=44.3609 
.step Vd=44.2588 
.step Vd=44.157 
.step Vd=44.0555 
.step Vd=43.9542 
.step Vd=43.8531 
.step Vd=43.7522 
.step Vd=43.6516 
.step Vd=43.5512 
.step Vd=43.451 
.step Vd=43.3511 
.step Vd=43.2514 
.step Vd=43.1519 
.step Vd=43.0527 
.step Vd=42.9536 
.step Vd=42.8549 
.step Vd=42.7563 
.step Vd=42.658 
.step Vd=42.5598 
.step Vd=42.462 
.step Vd=42.3643 
.step Vd=42.2669 
.step Vd=42.1697 
.step Vd=42.0727 
.step Vd=41.9759 
.step Vd=41.8794 
.step Vd=41.783 
.step Vd=41.6869 
.step Vd=41.5911 
.step Vd=41.4954 
.step Vd=41.4 
.step Vd=41.3048 
.step Vd=41.2098 
.step Vd=41.115 
.step Vd=41.0204 
.step Vd=40.9261 
.step Vd=40.8319 
.step Vd=40.738 
.step Vd=40.6443 
.step Vd=40.5509 
.step Vd=40.4576 
.step Vd=40.3645 
.step Vd=40.2717 
.step Vd=40.1791 
.step Vd=40.0867 
.step Vd=39.9945 
.step Vd=39.9025 
.step Vd=39.8107 
.step Vd=39.7192 
.step Vd=39.6278 
.step Vd=39.5367 
.step Vd=39.4457 
.step Vd=39.355 
.step Vd=39.2645 
.step Vd=39.1742 
.step Vd=39.0841 
.step Vd=38.9942 
.step Vd=38.9045 
.step Vd=38.815 
.step Vd=38.7258 
.step Vd=38.6367 
.step Vd=38.5478 
.step Vd=38.4592 
.step Vd=38.3707 
.step Vd=38.2825 
.step Vd=38.1944 
.step Vd=38.1066 
.step Vd=38.0189 
.step Vd=37.9315 
.step Vd=37.8443 
.step Vd=37.7572 
.step Vd=37.6704 
.step Vd=37.5837 
.step Vd=37.4973 
.step Vd=37.4111 
.step Vd=37.325 
.step Vd=37.2392 
.step Vd=37.1535 
.step Vd=37.0681 
.step Vd=36.9828 
.step Vd=36.8978 
.step Vd=36.8129 
.step Vd=36.7282 
.step Vd=36.6438 
.step Vd=36.5595 
.step Vd=36.4754 
.step Vd=36.3915 
.step Vd=36.3078 
.step Vd=36.2243 
.step Vd=36.141 
.step Vd=36.0579 
.step Vd=35.9749 
.step Vd=35.8922 
.step Vd=35.8096 
.step Vd=35.7273 
.step Vd=35.6451 
.step Vd=35.5631 
.step Vd=35.4813 
.step Vd=35.3997 
.step Vd=35.3183 
.step Vd=35.2371 
.step Vd=35.156 
.step Vd=35.0752 
.step Vd=34.9945 
.step Vd=34.914 
.step Vd=34.8337 
.step Vd=34.7536 
.step Vd=34.6737 
.step Vd=34.5939 
.step Vd=34.5144 
.step Vd=34.435 
.step Vd=34.3558 
.step Vd=34.2768 
.step Vd=34.1979 
.step Vd=34.1193 
.step Vd=34.0408 
.step Vd=33.9625 
.step Vd=33.8844 
.step Vd=33.8065 
.step Vd=33.7287 
.step Vd=33.6512 
.step Vd=33.5738 
.step Vd=33.4965 
.step Vd=33.4195 
.step Vd=33.3426 
.step Vd=33.266 
.step Vd=33.1894 
.step Vd=33.1131 
.step Vd=33.037 
.step Vd=32.961 
.step Vd=32.8852 
.step Vd=32.8095 
.step Vd=32.7341 
.step Vd=32.6588 
.step Vd=32.5837 
.step Vd=32.5087 
.step Vd=32.434 
.step Vd=32.3594 
.step Vd=32.2849 
.step Vd=32.2107 
.step Vd=32.1366 
.step Vd=32.0627 
.step Vd=31.989 
.step Vd=31.9154 
.step Vd=31.842 
.step Vd=31.7687 
.step Vd=31.6957 
.step Vd=31.6228 
.step Vd=31.55 
.step Vd=31.4775 
.step Vd=31.4051 
.step Vd=31.3329 
.step Vd=31.2608 
.step Vd=31.1889 
.step Vd=31.1172 
.step Vd=31.0456 
.step Vd=30.9742 
.step Vd=30.903 
.step Vd=30.8319 
.step Vd=30.761 
.step Vd=30.6902 
.step Vd=30.6196 
.step Vd=30.5492 
.step Vd=30.4789 
.step Vd=30.4089 
.step Vd=30.3389 
.step Vd=30.2691 
.step Vd=30.1995 
.step Vd=30.1301 
.step Vd=30.0608 
.step Vd=29.9916 
.step Vd=29.9226 
.step Vd=29.8538 
.step Vd=29.7852 
.step Vd=29.7167 
.step Vd=29.6483 
.step Vd=29.5801 
.step Vd=29.5121 
.step Vd=29.4442 
.step Vd=29.3765 
.step Vd=29.3089 
.step Vd=29.2415 
.step Vd=29.1743 
.step Vd=29.1072 
.step Vd=29.0402 
.step Vd=28.9734 
.step Vd=28.9068 
.step Vd=28.8403 
.step Vd=28.774 
.step Vd=28.7078 
.step Vd=28.6418 
.step Vd=28.5759 
.step Vd=28.5102 
.step Vd=28.4446 
.step Vd=28.3792 
.step Vd=28.3139 
.step Vd=28.2488 
.step Vd=28.1838 
.step Vd=28.119 
.step Vd=28.0543 
.step Vd=27.9898 
.step Vd=27.9254 
.step Vd=27.8612 
.step Vd=27.7971 
.step Vd=27.7332 
.step Vd=27.6694 
.step Vd=27.6058 
.step Vd=27.5423 
.step Vd=27.4789 
.step Vd=27.4157 
.step Vd=27.3527 
.step Vd=27.2898 
.step Vd=27.227 
.step Vd=27.1644 
.step Vd=27.1019 
.step Vd=27.0396 
.step Vd=26.9774 
.step Vd=26.9153 
.step Vd=26.8534 
.step Vd=26.7917 
.step Vd=26.7301 
.step Vd=26.6686 
.step Vd=26.6073 
.step Vd=26.5461 
.step Vd=26.485 
.step Vd=26.4241 
.step Vd=26.3633 
.step Vd=26.3027 
.step Vd=26.2422 
.step Vd=26.1818 
.step Vd=26.1216 
.step Vd=26.0615 
.step Vd=26.0016 
.step Vd=25.9418 
.step Vd=25.8821 
.step Vd=25.8226 
.step Vd=25.7632 
.step Vd=25.704 
.step Vd=25.6448 
.step Vd=25.5859 
.step Vd=25.527 
.step Vd=25.4683 
.step Vd=25.4097 
.step Vd=25.3513 
.step Vd=25.293 
.step Vd=25.2348 
.step Vd=25.1768 
.step Vd=25.1189 
.step Vd=25.0611 
.step Vd=25.0035 
.step Vd=24.9459 
.step Vd=24.8886 
.step Vd=24.8313 
.step Vd=24.7742 
.step Vd=24.7172 
.step Vd=24.6604 
.step Vd=24.6037 
.step Vd=24.5471 
.step Vd=24.4906 
.step Vd=24.4343 
.step Vd=24.3781 
.step Vd=24.322 
.step Vd=24.2661 
.step Vd=24.2103 
.step Vd=24.1546 
.step Vd=24.0991 
.step Vd=24.0436 
.step Vd=23.9883 
.step Vd=23.9332 
.step Vd=23.8781 
.step Vd=23.8232 
.step Vd=23.7684 
.step Vd=23.7137 
.step Vd=23.6592 
.step Vd=23.6048 
.step Vd=23.5505 
.step Vd=23.4963 
.step Vd=23.4423 
.step Vd=23.3884 
.step Vd=23.3346 
.step Vd=23.2809 
.step Vd=23.2274 
.step Vd=23.1739 
.step Vd=23.1206 
.step Vd=23.0675 
.step Vd=23.0144 
.step Vd=22.9615 
.step Vd=22.9087 
.step Vd=22.856 
.step Vd=22.8034 
.step Vd=22.751 
.step Vd=22.6986 
.step Vd=22.6464 
.step Vd=22.5944 
.step Vd=22.5424 
.step Vd=22.4905 
.step Vd=22.4388 
.step Vd=22.3872 
.step Vd=22.3357 
.step Vd=22.2844 
.step Vd=22.2331 
.step Vd=22.182 
.step Vd=22.1309 
.step Vd=22.08 
.step Vd=22.0293 
.step Vd=21.9786 
.step Vd=21.928 
.step Vd=21.8776 
.step Vd=21.8273 
.step Vd=21.7771 
.step Vd=21.727 
.step Vd=21.677 
.step Vd=21.6272 
.step Vd=21.5774 
.step Vd=21.5278 
.step Vd=21.4783 
.step Vd=21.4289 
.step Vd=21.3796 
.step Vd=21.3304 
.step Vd=21.2814 
.step Vd=21.2324 
.step Vd=21.1836 
.step Vd=21.1349 
.step Vd=21.0863 
.step Vd=21.0378 
.step Vd=20.9894 
.step Vd=20.9411 
.step Vd=20.893 
.step Vd=20.8449 
.step Vd=20.797 
.step Vd=20.7491 
.step Vd=20.7014 
.step Vd=20.6538 
.step Vd=20.6063 
.step Vd=20.5589 
.step Vd=20.5116 
.step Vd=20.4644 
.step Vd=20.4174 
.step Vd=20.3704 
.step Vd=20.3236 
.step Vd=20.2768 
.step Vd=20.2302 
.step Vd=20.1837 
.step Vd=20.1372 
.step Vd=20.0909 
.step Vd=20.0447 
.step Vd=19.9986 
.step Vd=19.9526 
.step Vd=19.9067 
.step Vd=19.8609 
.step Vd=19.8153 
.step Vd=19.7697 
.step Vd=19.7242 
.step Vd=19.6789 
.step Vd=19.6336 
.step Vd=19.5884 
.step Vd=19.5434 
.step Vd=19.4984 
.step Vd=19.4536 
.step Vd=19.4089 
.step Vd=19.3642 
.step Vd=19.3197 
.step Vd=19.2752 
.step Vd=19.2309 
.step Vd=19.1867 
.step Vd=19.1426 
.step Vd=19.0985 
.step Vd=19.0546 
.step Vd=19.0108 
.step Vd=18.9671 
.step Vd=18.9234 
.step Vd=18.8799 
.step Vd=18.8365 
.step Vd=18.7932 
.step Vd=18.7499 
.step Vd=18.7068 
.step Vd=18.6638 
.step Vd=18.6209 
.step Vd=18.578 
.step Vd=18.5353 
.step Vd=18.4927 
.step Vd=18.4502 
.step Vd=18.4077 
.step Vd=18.3654 
.step Vd=18.3231 
.step Vd=18.281 
.step Vd=18.239 
.step Vd=18.197 
.step Vd=18.1552 
.step Vd=18.1134 
.step Vd=18.0717 
.step Vd=18.0302 
.step Vd=17.9887 
.step Vd=17.9473 
.step Vd=17.9061 
.step Vd=17.8649 
.step Vd=17.8238 
.step Vd=17.7828 
.step Vd=17.7419 
.step Vd=17.7011 
.step Vd=17.6604 
.step Vd=17.6198 
.step Vd=17.5792 
.step Vd=17.5388 
.step Vd=17.4985 
.step Vd=17.4582 
.step Vd=17.4181 
.step Vd=17.378 
.step Vd=17.338 
.step Vd=17.2982 
.step Vd=17.2584 
.step Vd=17.2187 
.step Vd=17.1791 
.step Vd=17.1396 
.step Vd=17.1002 
.step Vd=17.0608 
.step Vd=17.0216 
.step Vd=16.9824 
.step Vd=16.9434 
.step Vd=16.9044 
.step Vd=16.8655 
.step Vd=16.8267 
.step Vd=16.788 
.step Vd=16.7494 
.step Vd=16.7109 
.step Vd=16.6725 
.step Vd=16.6341 
.step Vd=16.5959 
.step Vd=16.5577 
.step Vd=16.5196 
.step Vd=16.4816 
.step Vd=16.4437 
.step Vd=16.4059 
.step Vd=16.3682 
.step Vd=16.3305 
.step Vd=16.293 
.step Vd=16.2555 
.step Vd=16.2181 
.step Vd=16.1808 
.step Vd=16.1436 
.step Vd=16.1065 
.step Vd=16.0694 
.step Vd=16.0325 
.step Vd=15.9956 
.step Vd=15.9588 
.step Vd=15.9221 
.step Vd=15.8855 
.step Vd=15.8489 
.step Vd=15.8125 
.step Vd=15.7761 
.step Vd=15.7398 
.step Vd=15.7036 
.step Vd=15.6675 
.step Vd=15.6315 
.step Vd=15.5955 
.step Vd=15.5597 
.step Vd=15.5239 
.step Vd=15.4882 
.step Vd=15.4525 
.step Vd=15.417 
.step Vd=15.3815 
.step Vd=15.3462 
.step Vd=15.3109 
.step Vd=15.2757 
.step Vd=15.2405 
.step Vd=15.2055 
.step Vd=15.1705 
.step Vd=15.1356 
.step Vd=15.1008 
.step Vd=15.0661 
.step Vd=15.0314 
.step Vd=14.9968 
.step Vd=14.9624 
.step Vd=14.9279 
.step Vd=14.8936 
.step Vd=14.8594 
.step Vd=14.8252 
.step Vd=14.7911 
.step Vd=14.7571 
.step Vd=14.7231 
.step Vd=14.6893 
.step Vd=14.6555 
.step Vd=14.6218 
.step Vd=14.5881 
.step Vd=14.5546 
.step Vd=14.5211 
.step Vd=14.4877 
.step Vd=14.4544 
.step Vd=14.4212 
.step Vd=14.388 
.step Vd=14.3549 
.step Vd=14.3219 
.step Vd=14.2889 
.step Vd=14.2561 
.step Vd=14.2233 
.step Vd=14.1906 
.step Vd=14.1579 
.step Vd=14.1254 
.step Vd=14.0929 
.step Vd=14.0605 
.step Vd=14.0281 
.step Vd=13.9959 
.step Vd=13.9637 
.step Vd=13.9316 
.step Vd=13.8995 
.step Vd=13.8676 
.step Vd=13.8357 
.step Vd=13.8038 
.step Vd=13.7721 
.step Vd=13.7404 
.step Vd=13.7088 
.step Vd=13.6773 
Direct Newton iteration failed to find .op point.  (Use ".option noopiter" to skip.)

Simulation stopped by user.
Total elapsed time: 69.197 seconds.

Files loaded:
C:\Users\Ognjen Gutesa\Documents\Projects\base3\sims\schematics\MIN.net
C:\Users\Ognjen Gutesa\AppData\Local\LTspice\lib\sub\IRF540.sub

